/*--------------------------------*- C++ -*----------------------------------*\
| =========                 |                                                |
| \\      /  F ield         | cfMesh: A library for mesh generation          | 
|  \\    /   O peration     |                                                |
|   \\  /    A nd           | Author: Franjo Juretic                         | 
|    \\/     M anipulation  | E-mail: franjo.juretic@c-fields.com            |
\*---------------------------------------------------------------------------*/

FoamFile
{
    version   2.0;
    format    ascii;
    class     dictionary;
    location  "system";
    object    meshDict;
}

// * * * * * * * * * * * * * * * * * * * * * * * * * * * * * * * * * * * * * //

surfaceFile "tot.fms";

maxCellSize 0.05;

boundaryCellSize 0.05;

minCellSize 0.05;

localRefinement
{
    Inflow
    {
        cellSize  0.05;
    }
    Outflow
    {
        cellSize  0.05;
    }
    Cylinder
    {
        cellSize  0.05;
    }
    Wall
    {
        cellSize  0.05;
    }
}

// ************************************************************************* //
